/*---------------------------------------------------------------------------*\
| =========                 |                                                 |
| \\      /  F ield         | OpenFOAM: The Open Source CFD Toolbox           |
|  \\    /   O peration     | Version:  1.5                                   |
|   \\  /    A nd           | Web:      http://www.openfoam.org               |
|    \\/     M anipulation  |                                                 |
\*---------------------------------------------------------------------------*/

FoamFile
{
    version         2.0;
    format          ascii;
    class           dictionary;
    object          fvSolution;
}

// * * * * * * * * * * * * * * * * * * * * * * * * * * * * * * * * * * * * * //

solvers
{
    "(y|y0|yu|yf)"
    {
        solver           PCG;
        preconditioner   DIC;
        tolerance        1e-8;
        relTol           0;
    };
/*
    y0
    {
	solver		PCG;
	preconditioner	DIC;
	tolerance	1e-8;
	relTol		0;
    };
*/
    lambda
    {
        solver           PCG;
        preconditioner   DIC;
        tolerance        1e-8;
        relTol           0;
    };

}


// ************************************************************************* //
